
**** 06/07/05 12:20:19 ********* PSpice 9.2 (Mar 2000) ******** ID# 1 ********

 ** Profile: "SCHEMATIC1-pr41"  [ C:\PROGRAM FILES\ORCAD\CAPTURE\PROJECTS\SCHEMATA4\pr4-SCHEMATIC1-pr41.sim ] 


 ****     CIRCUIT DESCRIPTION


******************************************************************************




** Creating circuit file "pr4-SCHEMATIC1-pr41.sim.cir" 
** WARNING: THIS AUTOMATICALLY GENERATED FILE MAY BE OVERWRITTEN BY SUBSEQUENT SIMULATIONS

*Libraries: 
* Local Libraries :
* From [PSPICE NETLIST] section of C:\Program Files\Orcad\PSpice\PSpice.ini file:
.lib "nom.lib" 

*Analysis directives: 
.TRAN  0 1000ns 0 
.PROBE V(*) I(*) W(*) D(*) NOISE(*) 
.INC ".\pr4-SCHEMATIC1.net" 



**** INCLUDING pr4-SCHEMATIC1.net ****
* source PR4
R_R1         0 N00222  30.303k  
R_R2         N00222 N00249  3000k  
R_R3         N00346 N00317  100k  
V_V1         0 N00442 15Vdc
V_V2         N00413 0 15Vdc
V_V3         N00346 0 DC 0Vdc AC 1Vac 

**** RESUMING pr4-SCHEMATIC1-pr41.sim.cir ****
.END

ERROR -- Less than 2 connections at node N00249
ERROR -- Less than 2 connections at node N00317