
**** 06/07/05 13:02:08 ********* PSpice 9.2 (Mar 2000) ******** ID# 1 ********

 ** Profile: "SCHEMATIC1-pr42"  [ C:\PROGRAM FILES\ORCAD\CAPTURE\PROJECTS\SCHEMATA4\pr4-SCHEMATIC1-pr42.sim ] 


 ****     CIRCUIT DESCRIPTION


******************************************************************************




** Creating circuit file "pr4-SCHEMATIC1-pr42.sim.cir" 
** WARNING: THIS AUTOMATICALLY GENERATED FILE MAY BE OVERWRITTEN BY SUBSEQUENT SIMULATIONS

*Libraries: 
* Local Libraries :
* From [PSPICE NETLIST] section of C:\Program Files\Orcad\PSpice\PSpice.ini file:
.lib "nom.lib" 

*Analysis directives: 
.DC LIN TEMP -20 130 1 
.PROBE V(*) I(*) W(*) D(*) NOISE(*) 
.INC ".\pr4-SCHEMATIC1.net" 



**** INCLUDING pr4-SCHEMATIC1.net ****
* source PR4
X_U2         N00897 N00222 N01008 N01137 N01182 UA741 
R_R1         0 N00222  30.303k  
R_R2         N00222 N01182  3000k  
R_R3         N00346 N00897  100k  
V_V1         0 N01137 15Vdc
V_V2         N01008 0 15Vdc
V_V3         N00346 0 DC 0Vdc AC 1Vac 

**** RESUMING pr4-SCHEMATIC1-pr42.sim.cir ****
.END

**** 06/07/05 13:02:08 ********* PSpice 9.2 (Mar 2000) ******** ID# 1 ********

 ** Profile: "SCHEMATIC1-pr42"  [ C:\PROGRAM FILES\ORCAD\CAPTURE\PROJECTS\SCHEMATA4\pr4-SCHEMATIC1-pr42.sim ] 


 ****     Diode MODEL PARAMETERS


******************************************************************************




               X_U2.dx         X_U2.dy         
          IS  800.000000E-18  800.000000E-18 
          RS    1               1.000000E-03 
         CJO                   10.000000E-12 


**** 06/07/05 13:02:08 ********* PSpice 9.2 (Mar 2000) ******** ID# 1 ********

 ** Profile: "SCHEMATIC1-pr42"  [ C:\PROGRAM FILES\ORCAD\CAPTURE\PROJECTS\SCHEMATA4\pr4-SCHEMATIC1-pr42.sim ] 


 ****     BJT MODEL PARAMETERS


******************************************************************************




               X_U2.qx         
               NPN             
          IS  800.000000E-18 
          BF   93.75         
          NF    1            
          BR    1            
          NR    1            
          CN    2.42         
           D     .87         



          JOB CONCLUDED

          TOTAL JOB TIME             .08
